temp file to check git behavior.

new line.
